contingency/peak_load/20pc/TNB_DUMA_VLN.Txt

SYMMETRICAL COMPONENT VOLTAGES BY BUS (for 3-phase buses)

Bus               Mag:   V1 (kV)    p.u.     V2 (kV)   %V2/V1    V0 (kV)    %V0/V1

ppu_duma_33kv        18.98      0.996  9.268E-009  4.884E-008 1.239E-009 6.531E-009
ppu_duma_11kv        6.087     0.9585  3.172E-009  5.211E-008 2.954E-011 4.853E-010
rpplngi2             6.084      0.958  3.17E-009  5.211E-008 3.024E-011 4.97E-010
pdtjlnmasjid         6.082     0.9576  3.169E-009  5.211E-008 3.078E-011 5.061E-010
bella                 6.08     0.9574  3.169E-009  5.211E-008 3.116E-011 5.125E-010
pstpdgn               6.08     0.9573  3.168E-009  5.212E-008 3.135E-011 5.157E-010
pamdra               6.089     0.9587  3.173E-009  5.21E-008 2.952E-011 4.848E-010
duma4                6.094     0.9596  3.175E-009  5.21E-008 2.904E-011 4.766E-010
plsdra               6.104     0.9611  3.179E-009  5.209E-008 3.375E-011 5.53E-010
ssu_uptwres_ir1      6.102     0.9609  3.179E-009  5.209E-008 3.391E-011 5.557E-010
atria_1              6.103     0.9609  3.179E-009  5.209E-008 2.966E-011 4.86E-010
hawker               6.104     0.9612  3.18E-009  5.209E-008 3.485E-011 5.708E-010
prmte                6.063     0.9547  3.161E-009  5.214E-008 4.546E-011 7.498E-010
prmta                 6.06     0.9542  3.16E-009  5.214E-008 4.568E-011 7.537E-010
pmontb               6.061     0.9543  3.16E-009  5.214E-008 4.645E-011 7.664E-010
duma7                 6.09     0.9589  3.173E-009  5.21E-008 2.963E-011 4.865E-010
haus                 6.104     0.9611  3.179E-009  5.209E-008 3.014E-011 4.938E-010
duma6                6.144     0.9675  3.198E-009  5.205E-008 5.449E-011 8.868E-010
duma13               6.186     0.9741  3.218E-009  5.202E-008  8.8E-011 1.422E-009
ssu_duma5_im2        6.189     0.9745  3.219E-009  5.202E-008 8.838E-011 1.428E-009
plngi_b              6.098     0.9602  3.177E-009  5.209E-008 2.932E-011 4.808E-010
plngi_d              6.106     0.9615  3.18E-009  5.208E-008 2.912E-011 4.769E-010
pdtlitrak            6.121     0.9638  3.187E-009  5.207E-008 2.972E-011 4.856E-010
duma12               6.135      0.966  3.193E-009  5.206E-008 2.997E-011 4.886E-010
tmngh4               6.151     0.9685  3.201E-009  5.204E-008 3.471E-011 5.642E-010
ssu_tmegah3_ir1      6.157     0.9695  3.204E-009  5.203E-008 3.844E-011 6.244E-010
tmngh2               6.159     0.9698  3.204E-009  5.203E-008 4.035E-011 6.552E-010
sprk9                6.068     0.9555  3.163E-009  5.213E-008 3.166E-011 5.218E-010
bomba                6.068     0.9555  3.163E-009  5.213E-008 3.279E-011 5.403E-010
sprk8                6.068     0.9555  3.163E-009  5.213E-008 3.578E-011 5.896E-010
ssu_uptwres_im2      6.086     0.9583  3.171E-009  5.211E-008 3.149E-011 5.175E-010
maybank              6.096     0.9598  3.176E-009  5.21E-008 3.152E-011 5.171E-010
duma8                6.098     0.9601  3.177E-009  5.209E-008 3.139E-011 5.149E-010
ssu_dsarcntr_ir1     6.094     0.9595  3.175E-009  5.21E-008 2.937E-011 4.82E-010
duma9                6.095     0.9598  3.176E-009  5.21E-008 3.02E-011 4.954E-010
duma1                6.099     0.9603  3.177E-009  5.209E-008 3.051E-011 5.003E-010
elite                  6.1     0.9605  3.178E-009  5.209E-008 3.063E-011 5.022E-010
duma10               6.107     0.9616  3.181E-009  5.208E-008 2.94E-011 4.814E-010
balaipolis           6.107     0.9616  3.181E-009  5.208E-008 2.94E-011 4.814E-010
ppu_duma_vcb1            0          0          0          0         0         0
